Circuit: * C:\Users\Denisa\Desktop\SCIA\Proiect\gen_TrDr.asc

Per .tran options, skipping operating point for transient analysis.

Date: Wed Jan 17 10:31:45 2024
Total elapsed time: 0.345 seconds.

tnom = 27
temp = 27
method = modified trap
totiter = 12376
traniter = 12376
tranpoints = 3869
accept = 2959
rejected = 910
matrix size = 162
fillins = 332
solver = Normal
Avg thread counts: 3.3/2.5/2.6/1.5
Matrix Compiler1: 25.25 KB object code size  4.3/2.1/[1.6]
Matrix Compiler2: 19.58 KB object code size  1.2/1.7/[1.0]

